<?xml version="1.0" ?>
<configuration xmlns:xsi="http://www.w3.org/2001/XMLSchema-instance" xsi:noNamespaceSchemaLocation="http://sumo.dlr.de/xsd/duarouterConfiguration.xsd">
    <random>
        <seed value="812"/>
    </random>
    <input>
        <net-file value="chatt.net.xml"/>
        <route-files value="chatt.rou.xml"/>
        <additional-files value="Edge.add.xml"/>
    </input>
    <output/>
    <time>
        <begin value="28800"/>
        <end value="32400"/>
        <step-length value="1"/>
    </time>
    <gui_only>
        <start value="t"/>
    </gui_only>
    <report>
        <no-warnings value="true"/>
        <no-step-log value="true"/>
    </report>
</configuration>
