<?xml version='1.0' encoding='utf-8'?>
<additional><edgeData id="1" file="EdgeData.xml" /></additional>