<?xml version='1.0' encoding='utf-8'?>
<routes><vType id="car" type="passenger" /><flow id="1" begin="28800.0" end="29700.0" from="-90" number="186" type="car" /><flow id="2" begin="28800.0" end="29700.0" from="-97" number="98" type="car" /><flow id="3" begin="28800.0" end="29700.0" from="-91" number="0" type="car" /><flow id="4" begin="28800.0" end="29700.0" from="-92" number="0" type="car" /><flow id="5" begin="29700.0" end="30600.0" from="-90" number="192" type="car" /><flow id="6" begin="29700.0" end="30600.0" from="-97" number="105" type="car" /><flow id="7" begin="29700.0" end="30600.0" from="-91" number="0" type="car" /><flow id="8" begin="29700.0" end="30600.0" from="-92" number="0" type="car" /><flow id="9" begin="30600.0" end="31500.0" from="-90" number="211" type="car" /><flow id="10" begin="30600.0" end="31500.0" from="-97" number="114" type="car" /><flow id="11" begin="30600.0" end="31500.0" from="-91" number="0" type="car" /><flow id="12" begin="30600.0" end="31500.0" from="-92" number="0" type="car" /><flow id="13" begin="31500.0" end="32400.0" from="-90" number="196" type="car" /><flow id="14" begin="31500.0" end="32400.0" from="-97" number="100" type="car" /><flow id="15" begin="31500.0" end="32400.0" from="-91" number="0" type="car" /><flow id="16" begin="31500.0" end="32400.0" from="-92" number="0" type="car" /></routes>