<?xml version="1.0" encoding="UTF-8"?>

<!-- generated on 2026-02-05 00:25:06 by Eclipse SUMO jtrrouter Version 1.21.0
<jtrrouterConfiguration xmlns:xsi="http://www.w3.org/2001/XMLSchema-instance" xsi:noNamespaceSchemaLocation="http://sumo.dlr.de/xsd/jtrrouterConfiguration.xsd">

    <input>
        <net-file value="C:/Users/xyluo25/anaconda3_workspace/001_GitHub/paper_Agentic_RealTwin/Agentic_RealTwin/proj_tmp_output/RealTwin_User/output/SUMO/chatt.net.xml"/>
        <route-files value="C:/Users/xyluo25/anaconda3_workspace/001_GitHub/paper_Agentic_RealTwin/Agentic_RealTwin/proj_tmp_output/RealTwin_User/output/SUMO/chatt.flow.xml"/>
        <turn-ratio-files value="C:/Users/xyluo25/anaconda3_workspace/001_GitHub/paper_Agentic_RealTwin/Agentic_RealTwin/proj_tmp_output/RealTwin_User/output/SUMO/chatt.turn.xml"/>
    </input>

    <output>
        <output-file value="C:/Users/xyluo25/anaconda3_workspace/001_GitHub/paper_Agentic_RealTwin/Agentic_RealTwin/proj_tmp_output/RealTwin_User/output/SUMO/chatt.rou.xml"/>
    </output>

    <processing>
        <randomize-flows value="true"/>
        <remove-loops value="True"/>
        <accept-all-destinations value="true"/>
    </processing>

    <random_number>
        <seed value="812"/>
    </random_number>

</jtrrouterConfiguration>
-->

<routes xmlns:xsi="http://www.w3.org/2001/XMLSchema-instance" xsi:noNamespaceSchemaLocation="http://sumo.dlr.de/xsd/routes_file.xsd">
    <vType id="car"/>
    <vehicle id="1.0" type="car" depart="28800.77">
        <route edges="-90 -96 -101"/>
    </vehicle>
    <vehicle id="1.1" type="car" depart="28802.05">
        <route edges="-90 -94"/>
    </vehicle>
    <vehicle id="1.2" type="car" depart="28808.31">
        <route edges="-90 -96 -101"/>
    </vehicle>
    <vehicle id="1.3" type="car" depart="28812.72">
        <route edges="-90 -95 -98"/>
    </vehicle>
    <vehicle id="1.4" type="car" depart="28814.10">
        <route edges="-90 -96 -103 -105 -106 -100 -107 -104 -101"/>
    </vehicle>
    <vehicle id="1.5" type="car" depart="28827.79">
        <route edges="-90 -96 -101"/>
    </vehicle>
    <vehicle id="1.6" type="car" depart="28830.47">
        <route edges="-90 -96 -103 -105 -106 -98"/>
    </vehicle>
    <vehicle id="1.7" type="car" depart="28837.59">
        <route edges="-90 -94"/>
    </vehicle>
    <vehicle id="1.8" type="car" depart="28837.77">
        <route edges="-90 -95 -98"/>
    </vehicle>
    <vehicle id="1.9" type="car" depart="28838.61">
        <route edges="-90 -96 -101"/>
    </vehicle>
    <vehicle id="1.10" type="car" depart="28840.92">
        <route edges="-90 -96 -101"/>
    </vehicle>
    <vehicle id="2.0" type="car" depart="28844.61">
        <route edges="-97 -96 -103 -105 -106 -98"/>
    </vehicle>
    <vehicle id="1.11" type="car" depart="28851.72">
        <route edges="-90 -94"/>
    </vehicle>
    <vehicle id="2.1" type="car" depart="28853.85">
        <route edges="-97 -96 -103 -105 -106 -98"/>
    </vehicle>
    <vehicle id="2.2" type="car" depart="28858.29">
        <route edges="-97 -95 -100 -107 -104 -101"/>
    </vehicle>
    <vehicle id="1.12" type="car" depart="28861.57">
        <route edges="-90 -95 -100 -107 -104 -103 -105 -106 -99 -94"/>
    </vehicle>
    <vehicle id="1.13" type="car" depart="28861.81">
        <route edges="-90 -96 -103 -105 -106 -100 -107 -104 -102 -93"/>
    </vehicle>
    <vehicle id="2.3" type="car" depart="28862.43">
        <route edges="-97 -96 -102 -94"/>
    </vehicle>
    <vehicle id="2.4" type="car" depart="28863.16">
        <route edges="-97 -95 -100 -107 -104 -102 -93"/>
    </vehicle>
    <vehicle id="1.14" type="car" depart="28866.17">
        <route edges="-90 -96 -101"/>
    </vehicle>
    <vehicle id="1.15" type="car" depart="28866.69">
        <route edges="-90 -96 -101"/>
    </vehicle>
    <vehicle id="1.16" type="car" depart="28867.09">
        <route edges="-90 -96 -101"/>
    </vehicle>
    <vehicle id="2.5" type="car" depart="28868.21">
        <route edges="-97 -96 -103 -105 -106 -100 -107 -104 -101"/>
    </vehicle>
    <vehicle id="1.17" type="car" depart="28869.43">
        <route edges="-90 -96 -103 -105 -106 -98"/>
    </vehicle>
    <vehicle id="1.18" type="car" depart="28869.66">
        <route edges="-90 -95 -99 -94"/>
    </vehicle>
    <vehicle id="2.6" type="car" depart="28870.08">
        <route edges="-97 -93"/>
    </vehicle>
    <vehicle id="2.7" type="car" depart="28875.60">
        <route edges="-97 -95 -100 -107 -104 -102 -94"/>
    </vehicle>
    <vehicle id="2.8" type="car" depart="28881.37">
        <route edges="-97 -96 -101"/>
    </vehicle>
    <vehicle id="1.19" type="car" depart="28883.05">
        <route edges="-90 -96 -103 -105 -106 -98"/>
    </vehicle>
    <vehicle id="2.9" type="car" depart="28886.99">
        <route edges="-97 -96 -101"/>
    </vehicle>
    <vehicle id="2.10" type="car" depart="28887.76">
        <route edges="-97 -96 -103 -105 -106 -98"/>
    </vehicle>
    <vehicle id="1.20" type="car" depart="28892.30">
        <route edges="-90 -96 -101"/>
    </vehicle>
    <vehicle id="2.11" type="car" depart="28893.60">
        <route edges="-97 -95 -98"/>
    </vehicle>
    <vehicle id="1.21" type="car" depart="28894.10">
        <route edges="-90 -96 -101"/>
    </vehicle>
    <vehicle id="1.22" type="car" depart="28895.47">
        <route edges="-90 -96 -102 -93"/>
    </vehicle>
    <vehicle id="1.23" type="car" depart="28898.88">
        <route edges="-90 -94"/>
    </vehicle>
    <vehicle id="1.24" type="car" depart="28904.63">
        <route edges="-90 -96 -103 -105 -106 -98"/>
    </vehicle>
    <vehicle id="1.25" type="car" depart="28914.42">
        <route edges="-90 -96 -101"/>
    </vehicle>
    <vehicle id="2.12" type="car" depart="28919.90">
        <route edges="-97 -93"/>
    </vehicle>
    <vehicle id="1.26" type="car" depart="28921.39">
        <route edges="-90 -96 -103 -105 -106 -98"/>
    </vehicle>
    <vehicle id="1.27" type="car" depart="28922.58">
        <route edges="-90 -96 -103 -105 -106 -98"/>
    </vehicle>
    <vehicle id="1.28" type="car" depart="28923.69">
        <route edges="-90 -96 -101"/>
    </vehicle>
    <vehicle id="2.13" type="car" depart="28923.74">
        <route edges="-97 -95 -98"/>
    </vehicle>
    <vehicle id="1.29" type="car" depart="28925.28">
        <route edges="-90 -96 -102 -94"/>
    </vehicle>
    <vehicle id="1.30" type="car" depart="28933.33">
        <route edges="-90 -96 -101"/>
    </vehicle>
    <vehicle id="2.14" type="car" depart="28934.11">
        <route edges="-97 -95 -98"/>
    </vehicle>
    <vehicle id="1.31" type="car" depart="28934.27">
        <route edges="-90 -96 -102 -93"/>
    </vehicle>
    <vehicle id="1.32" type="car" depart="28936.17">
        <route edges="-90 -96 -101"/>
    </vehicle>
    <vehicle id="1.33" type="car" depart="28939.87">
        <route edges="-90 -96 -101"/>
    </vehicle>
    <vehicle id="1.34" type="car" depart="28940.01">
        <route edges="-90 -96 -103 -105 -106 -99 -94"/>
    </vehicle>
    <vehicle id="1.35" type="car" depart="28940.41">
        <route edges="-90 -96 -103 -105 -106 -100 -107 -104 -102 -94"/>
    </vehicle>
    <vehicle id="1.36" type="car" depart="28940.50">
        <route edges="-90 -96 -103 -105 -106 -100 -107 -104 -101"/>
    </vehicle>
    <vehicle id="1.37" type="car" depart="28945.85">
        <route edges="-90 -96 -101"/>
    </vehicle>
    <vehicle id="2.15" type="car" depart="28947.13">
        <route edges="-97 -96 -103 -105 -106 -98"/>
    </vehicle>
    <vehicle id="1.38" type="car" depart="28950.01">
        <route edges="-90 -94"/>
    </vehicle>
    <vehicle id="1.39" type="car" depart="28950.60">
        <route edges="-90 -96 -101"/>
    </vehicle>
    <vehicle id="2.16" type="car" depart="28954.30">
        <route edges="-97 -95 -100 -107 -104 -103 -105 -106 -98"/>
    </vehicle>
    <vehicle id="1.40" type="car" depart="28954.63">
        <route edges="-90 -96 -101"/>
    </vehicle>
    <vehicle id="1.41" type="car" depart="28961.00">
        <route edges="-90 -96 -101"/>
    </vehicle>
    <vehicle id="2.17" type="car" depart="28969.04">
        <route edges="-97 -93"/>
    </vehicle>
    <vehicle id="2.18" type="car" depart="28983.63">
        <route edges="-97 -96 -103 -105 -106 -98"/>
    </vehicle>
    <vehicle id="1.42" type="car" depart="28992.49">
        <route edges="-90 -96 -103 -105 -106 -98"/>
    </vehicle>
    <vehicle id="2.19" type="car" depart="28993.84">
        <route edges="-97 -95 -98"/>
    </vehicle>
    <vehicle id="1.43" type="car" depart="28995.88">
        <route edges="-90 -96 -101"/>
    </vehicle>
    <vehicle id="1.44" type="car" depart="28998.84">
        <route edges="-90 -96 -103 -105 -106 -99 -93"/>
    </vehicle>
    <vehicle id="1.45" type="car" depart="29003.90">
        <route edges="-90 -96 -101"/>
    </vehicle>
    <vehicle id="2.20" type="car" depart="29006.48">
        <route edges="-97 -93"/>
    </vehicle>
    <vehicle id="1.46" type="car" depart="29009.98">
        <route edges="-90 -96 -103 -105 -106 -98"/>
    </vehicle>
    <vehicle id="2.21" type="car" depart="29011.97">
        <route edges="-97 -96 -103 -105 -106 -100 -107 -104 -102 -93"/>
    </vehicle>
    <vehicle id="1.47" type="car" depart="29013.53">
        <route edges="-90 -96 -101"/>
    </vehicle>
    <vehicle id="1.48" type="car" depart="29014.13">
        <route edges="-90 -96 -103 -105 -106 -98"/>
    </vehicle>
    <vehicle id="2.22" type="car" depart="29015.20">
        <route edges="-97 -96 -102 -93"/>
    </vehicle>
    <vehicle id="1.49" type="car" depart="29016.72">
        <route edges="-90 -96 -101"/>
    </vehicle>
    <vehicle id="1.50" type="car" depart="29016.94">
        <route edges="-90 -96 -101"/>
    </vehicle>
    <vehicle id="1.51" type="car" depart="29018.48">
        <route edges="-90 -96 -102 -93"/>
    </vehicle>
    <vehicle id="1.52" type="car" depart="29019.35">
        <route edges="-90 -96 -102 -94"/>
    </vehicle>
    <vehicle id="2.23" type="car" depart="29022.13">
        <route edges="-97 -93"/>
    </vehicle>
    <vehicle id="2.24" type="car" depart="29022.93">
        <route edges="-97 -96 -101"/>
    </vehicle>
    <vehicle id="1.53" type="car" depart="29034.39">
        <route edges="-90 -96 -101"/>
    </vehicle>
    <vehicle id="1.54" type="car" depart="29038.63">
        <route edges="-90 -96 -102 -94"/>
    </vehicle>
    <vehicle id="1.55" type="car" depart="29055.98">
        <route edges="-90 -96 -101"/>
    </vehicle>
    <vehicle id="1.56" type="car" depart="29056.03">
        <route edges="-90 -96 -101"/>
    </vehicle>
    <vehicle id="1.57" type="car" depart="29061.75">
        <route edges="-90 -94"/>
    </vehicle>
    <vehicle id="1.58" type="car" depart="29062.58">
        <route edges="-90 -96 -101"/>
    </vehicle>
    <vehicle id="1.59" type="car" depart="29066.73">
        <route edges="-90 -96 -103 -105 -106 -99 -94"/>
    </vehicle>
    <vehicle id="1.60" type="car" depart="29067.00">
        <route edges="-90 -96 -102 -94"/>
    </vehicle>
    <vehicle id="1.61" type="car" depart="29067.72">
        <route edges="-90 -96 -103 -105 -106 -100 -107 -104 -101"/>
    </vehicle>
    <vehicle id="1.62" type="car" depart="29070.44">
        <route edges="-90 -94"/>
    </vehicle>
    <vehicle id="2.25" type="car" depart="29077.66">
        <route edges="-97 -95 -100 -107 -104 -101"/>
    </vehicle>
    <vehicle id="1.63" type="car" depart="29081.76">
        <route edges="-90 -96 -101"/>
    </vehicle>
    <vehicle id="1.64" type="car" depart="29093.79">
        <route edges="-90 -96 -102 -93"/>
    </vehicle>
    <vehicle id="2.26" type="car" depart="29103.80">
        <route edges="-97 -95 -100 -107 -104 -102 -94"/>
    </vehicle>
    <vehicle id="1.65" type="car" depart="29104.22">
        <route edges="-90 -96 -101"/>
    </vehicle>
    <vehicle id="2.27" type="car" depart="29105.89">
        <route edges="-97 -96 -102 -93"/>
    </vehicle>
    <vehicle id="1.66" type="car" depart="29108.56">
        <route edges="-90 -94"/>
    </vehicle>
    <vehicle id="1.67" type="car" depart="29109.58">
        <route edges="-90 -96 -101"/>
    </vehicle>
    <vehicle id="2.28" type="car" depart="29111.32">
        <route edges="-97 -95 -100 -107 -104 -101"/>
    </vehicle>
    <vehicle id="1.68" type="car" depart="29113.84">
        <route edges="-90 -96 -101"/>
    </vehicle>
    <vehicle id="2.29" type="car" depart="29114.11">
        <route edges="-97 -96 -101"/>
    </vehicle>
    <vehicle id="2.30" type="car" depart="29130.36">
        <route edges="-97 -95 -98"/>
    </vehicle>
    <vehicle id="1.69" type="car" depart="29130.87">
        <route edges="-90 -96 -103 -105 -106 -100 -107 -104 -102 -95 -98"/>
    </vehicle>
    <vehicle id="2.31" type="car" depart="29132.90">
        <route edges="-97 -96 -101"/>
    </vehicle>
    <vehicle id="1.70" type="car" depart="29134.32">
        <route edges="-90 -96 -101"/>
    </vehicle>
    <vehicle id="1.71" type="car" depart="29139.72">
        <route edges="-90 -94"/>
    </vehicle>
    <vehicle id="1.72" type="car" depart="29140.68">
        <route edges="-90 -94"/>
    </vehicle>
    <vehicle id="1.73" type="car" depart="29140.77">
        <route edges="-90 -96 -102 -94"/>
    </vehicle>
    <vehicle id="1.74" type="car" depart="29150.47">
        <route edges="-90 -96 -102 -94"/>
    </vehicle>
    <vehicle id="1.75" type="car" depart="29151.63">
        <route edges="-90 -96 -102 -94"/>
    </vehicle>
    <vehicle id="1.76" type="car" depart="29155.22">
        <route edges="-90 -96 -101"/>
    </vehicle>
    <vehicle id="1.77" type="car" depart="29161.12">
        <route edges="-90 -96 -102 -94"/>
    </vehicle>
    <vehicle id="2.32" type="car" depart="29164.05">
        <route edges="-97 -93"/>
    </vehicle>
    <vehicle id="2.33" type="car" depart="29174.16">
        <route edges="-97 -96 -101"/>
    </vehicle>
    <vehicle id="1.78" type="car" depart="29176.07">
        <route edges="-90 -96 -101"/>
    </vehicle>
    <vehicle id="2.34" type="car" depart="29176.29">
        <route edges="-97 -96 -102 -95 -100 -107 -104 -103 -105 -106 -98"/>
    </vehicle>
    <vehicle id="1.79" type="car" depart="29176.60">
        <route edges="-90 -96 -103 -105 -106 -98"/>
    </vehicle>
    <vehicle id="1.80" type="car" depart="29181.65">
        <route edges="-90 -96 -101"/>
    </vehicle>
    <vehicle id="2.35" type="car" depart="29185.23">
        <route edges="-97 -96 -101"/>
    </vehicle>
    <vehicle id="1.81" type="car" depart="29188.39">
        <route edges="-90 -96 -101"/>
    </vehicle>
    <vehicle id="2.36" type="car" depart="29188.46">
        <route edges="-97 -96 -102 -93"/>
    </vehicle>
    <vehicle id="1.82" type="car" depart="29189.42">
        <route edges="-90 -96 -103 -105 -106 -99 -94"/>
    </vehicle>
    <vehicle id="2.37" type="car" depart="29190.04">
        <route edges="-97 -95 -100 -107 -104 -103 -105 -106 -98"/>
    </vehicle>
    <vehicle id="1.83" type="car" depart="29194.31">
        <route edges="-90 -96 -101"/>
    </vehicle>
    <vehicle id="1.84" type="car" depart="29201.68">
        <route edges="-90 -96 -103 -105 -106 -100 -107 -104 -102 -94"/>
    </vehicle>
    <vehicle id="2.38" type="car" depart="29202.39">
        <route edges="-97 -96 -101"/>
    </vehicle>
    <vehicle id="1.85" type="car" depart="29202.91">
        <route edges="-90 -94"/>
    </vehicle>
    <vehicle id="1.86" type="car" depart="29205.25">
        <route edges="-90 -96 -101"/>
    </vehicle>
    <vehicle id="1.87" type="car" depart="29206.05">
        <route edges="-90 -96 -103 -105 -106 -100 -107 -104 -101"/>
    </vehicle>
    <vehicle id="1.88" type="car" depart="29207.14">
        <route edges="-90 -96 -101"/>
    </vehicle>
    <vehicle id="1.89" type="car" depart="29218.74">
        <route edges="-90 -96 -101"/>
    </vehicle>
    <vehicle id="1.90" type="car" depart="29219.35">
        <route edges="-90 -96 -101"/>
    </vehicle>
    <vehicle id="1.91" type="car" depart="29220.05">
        <route edges="-90 -96 -101"/>
    </vehicle>
    <vehicle id="1.92" type="car" depart="29220.54">
        <route edges="-90 -96 -101"/>
    </vehicle>
    <vehicle id="1.93" type="car" depart="29220.84">
        <route edges="-90 -94"/>
    </vehicle>
    <vehicle id="1.94" type="car" depart="29224.39">
        <route edges="-90 -96 -103 -105 -106 -100 -107 -104 -101"/>
    </vehicle>
    <vehicle id="1.95" type="car" depart="29224.96">
        <route edges="-90 -96 -102 -93"/>
    </vehicle>
    <vehicle id="2.39" type="car" depart="29233.54">
        <route edges="-97 -95 -98"/>
    </vehicle>
    <vehicle id="2.40" type="car" depart="29233.78">
        <route edges="-97 -95 -100 -107 -104 -102 -93"/>
    </vehicle>
    <vehicle id="2.41" type="car" depart="29236.89">
        <route edges="-97 -96 -103 -105 -106 -100 -107 -104 -102 -95 -99 -94"/>
    </vehicle>
    <vehicle id="2.42" type="car" depart="29237.75">
        <route edges="-97 -96 -101"/>
    </vehicle>
    <vehicle id="1.96" type="car" depart="29239.37">
        <route edges="-90 -96 -102 -93"/>
    </vehicle>
    <vehicle id="1.97" type="car" depart="29242.49">
        <route edges="-90 -94"/>
    </vehicle>
    <vehicle id="1.98" type="car" depart="29246.66">
        <route edges="-90 -96 -101"/>
    </vehicle>
    <vehicle id="2.43" type="car" depart="29250.21">
        <route edges="-97 -95 -100 -107 -104 -102 -94"/>
    </vehicle>
    <vehicle id="1.99" type="car" depart="29253.41">
        <route edges="-90 -94"/>
    </vehicle>
    <vehicle id="1.100" type="car" depart="29255.78">
        <route edges="-90 -96 -101"/>
    </vehicle>
    <vehicle id="1.101" type="car" depart="29256.45">
        <route edges="-90 -96 -101"/>
    </vehicle>
    <vehicle id="1.102" type="car" depart="29257.05">
        <route edges="-90 -96 -103 -105 -106 -100 -107 -104 -102 -93"/>
    </vehicle>
    <vehicle id="1.103" type="car" depart="29259.98">
        <route edges="-90 -96 -102 -94"/>
    </vehicle>
    <vehicle id="2.44" type="car" depart="29261.29">
        <route edges="-97 -96 -102 -94"/>
    </vehicle>
    <vehicle id="2.45" type="car" depart="29261.91">
        <route edges="-97 -96 -103 -105 -106 -98"/>
    </vehicle>
    <vehicle id="1.104" type="car" depart="29267.81">
        <route edges="-90 -94"/>
    </vehicle>
    <vehicle id="1.105" type="car" depart="29268.44">
        <route edges="-90 -94"/>
    </vehicle>
    <vehicle id="1.106" type="car" depart="29269.21">
        <route edges="-90 -96 -101"/>
    </vehicle>
    <vehicle id="1.107" type="car" depart="29273.88">
        <route edges="-90 -96 -101"/>
    </vehicle>
    <vehicle id="2.46" type="car" depart="29274.24">
        <route edges="-97 -95 -100 -107 -104 -102 -94"/>
    </vehicle>
    <vehicle id="2.47" type="car" depart="29280.14">
        <route edges="-97 -95 -100 -107 -104 -102 -94"/>
    </vehicle>
    <vehicle id="1.108" type="car" depart="29283.01">
        <route edges="-90 -96 -103 -105 -106 -98"/>
    </vehicle>
    <vehicle id="1.109" type="car" depart="29283.57">
        <route edges="-90 -96 -101"/>
    </vehicle>
    <vehicle id="2.48" type="car" depart="29289.62">
        <route edges="-97 -95 -98"/>
    </vehicle>
    <vehicle id="1.110" type="car" depart="29289.96">
        <route edges="-90 -94"/>
    </vehicle>
    <vehicle id="2.49" type="car" depart="29311.42">
        <route edges="-97 -95 -100 -107 -104 -102 -94"/>
    </vehicle>
    <vehicle id="1.111" type="car" depart="29317.12">
        <route edges="-90 -94"/>
    </vehicle>
    <vehicle id="1.112" type="car" depart="29318.18">
        <route edges="-90 -95 -98"/>
    </vehicle>
    <vehicle id="2.50" type="car" depart="29325.88">
        <route edges="-97 -95 -98"/>
    </vehicle>
    <vehicle id="1.113" type="car" depart="29327.19">
        <route edges="-90 -96 -101"/>
    </vehicle>
    <vehicle id="2.51" type="car" depart="29328.34">
        <route edges="-97 -96 -102 -94"/>
    </vehicle>
    <vehicle id="1.114" type="car" depart="29328.45">
        <route edges="-90 -96 -103 -105 -106 -100 -107 -104 -101"/>
    </vehicle>
    <vehicle id="2.52" type="car" depart="29335.39">
        <route edges="-97 -96 -102 -94"/>
    </vehicle>
    <vehicle id="1.115" type="car" depart="29340.67">
        <route edges="-90 -96 -103 -105 -106 -98"/>
    </vehicle>
    <vehicle id="1.116" type="car" depart="29346.92">
        <route edges="-90 -96 -103 -105 -106 -99 -94"/>
    </vehicle>
    <vehicle id="2.53" type="car" depart="29349.46">
        <route edges="-97 -95 -98"/>
    </vehicle>
    <vehicle id="1.117" type="car" depart="29358.57">
        <route edges="-90 -96 -101"/>
    </vehicle>
    <vehicle id="2.54" type="car" depart="29358.81">
        <route edges="-97 -95 -100 -107 -104 -102 -93"/>
    </vehicle>
    <vehicle id="1.118" type="car" depart="29361.53">
        <route edges="-90 -96 -101"/>
    </vehicle>
    <vehicle id="1.119" type="car" depart="29361.77">
        <route edges="-90 -96 -103 -105 -106 -99 -94"/>
    </vehicle>
    <vehicle id="1.120" type="car" depart="29365.66">
        <route edges="-90 -96 -101"/>
    </vehicle>
    <vehicle id="1.121" type="car" depart="29366.33">
        <route edges="-90 -96 -102 -93"/>
    </vehicle>
    <vehicle id="2.55" type="car" depart="29373.56">
        <route edges="-97 -93"/>
    </vehicle>
    <vehicle id="1.122" type="car" depart="29378.60">
        <route edges="-90 -96 -102 -93"/>
    </vehicle>
    <vehicle id="2.56" type="car" depart="29385.64">
        <route edges="-97 -96 -103 -105 -106 -98"/>
    </vehicle>
    <vehicle id="2.57" type="car" depart="29387.22">
        <route edges="-97 -95 -99 -94"/>
    </vehicle>
    <vehicle id="1.123" type="car" depart="29388.57">
        <route edges="-90 -96 -101"/>
    </vehicle>
    <vehicle id="1.124" type="car" depart="29391.98">
        <route edges="-90 -96 -101"/>
    </vehicle>
    <vehicle id="1.125" type="car" depart="29397.56">
        <route edges="-90 -96 -102 -94"/>
    </vehicle>
    <vehicle id="2.58" type="car" depart="29402.06">
        <route edges="-97 -96 -103 -105 -106 -98"/>
    </vehicle>
    <vehicle id="1.126" type="car" depart="29407.70">
        <route edges="-90 -95 -100 -107 -104 -101"/>
    </vehicle>
    <vehicle id="2.59" type="car" depart="29408.45">
        <route edges="-97 -96 -101"/>
    </vehicle>
    <vehicle id="2.60" type="car" depart="29408.77">
        <route edges="-97 -96 -103 -105 -106 -98"/>
    </vehicle>
    <vehicle id="2.61" type="car" depart="29410.31">
        <route edges="-97 -96 -101"/>
    </vehicle>
    <vehicle id="1.127" type="car" depart="29412.17">
        <route edges="-90 -96 -102 -94"/>
    </vehicle>
    <vehicle id="1.128" type="car" depart="29412.96">
        <route edges="-90 -96 -101"/>
    </vehicle>
    <vehicle id="1.129" type="car" depart="29414.31">
        <route edges="-90 -96 -103 -105 -106 -98"/>
    </vehicle>
    <vehicle id="2.62" type="car" depart="29414.42">
        <route edges="-97 -96 -101"/>
    </vehicle>
    <vehicle id="2.63" type="car" depart="29415.73">
        <route edges="-97 -96 -103 -105 -106 -98"/>
    </vehicle>
    <vehicle id="2.64" type="car" depart="29416.23">
        <route edges="-97 -96 -101"/>
    </vehicle>
    <vehicle id="2.65" type="car" depart="29418.95">
        <route edges="-97 -96 -101"/>
    </vehicle>
    <vehicle id="2.66" type="car" depart="29420.53">
        <route edges="-97 -96 -103 -105 -106 -98"/>
    </vehicle>
    <vehicle id="2.67" type="car" depart="29422.73">
        <route edges="-97 -95 -100 -107 -104 -102 -93"/>
    </vehicle>
    <vehicle id="1.130" type="car" depart="29427.06">
        <route edges="-90 -96 -103 -105 -106 -100 -107 -104 -102 -94"/>
    </vehicle>
    <vehicle id="2.68" type="car" depart="29431.01">
        <route edges="-97 -96 -101"/>
    </vehicle>
    <vehicle id="1.131" type="car" depart="29432.30">
        <route edges="-90 -96 -101"/>
    </vehicle>
    <vehicle id="1.132" type="car" depart="29436.06">
        <route edges="-90 -96 -103 -105 -106 -98"/>
    </vehicle>
    <vehicle id="1.133" type="car" depart="29441.85">
        <route edges="-90 -96 -101"/>
    </vehicle>
    <vehicle id="2.69" type="car" depart="29446.19">
        <route edges="-97 -95 -100 -107 -104 -102 -93"/>
    </vehicle>
    <vehicle id="2.70" type="car" depart="29448.59">
        <route edges="-97 -96 -101"/>
    </vehicle>
    <vehicle id="1.134" type="car" depart="29448.71">
        <route edges="-90 -96 -101"/>
    </vehicle>
    <vehicle id="2.71" type="car" depart="29453.10">
        <route edges="-97 -96 -103 -105 -106 -100 -107 -104 -102 -95 -99 -94"/>
    </vehicle>
    <vehicle id="1.135" type="car" depart="29457.27">
        <route edges="-90 -96 -103 -105 -106 -99 -93"/>
    </vehicle>
    <vehicle id="2.72" type="car" depart="29463.23">
        <route edges="-97 -95 -98"/>
    </vehicle>
    <vehicle id="1.136" type="car" depart="29464.30">
        <route edges="-90 -96 -103 -105 -106 -100 -107 -104 -101"/>
    </vehicle>
    <vehicle id="1.137" type="car" depart="29465.81">
        <route edges="-90 -96 -101"/>
    </vehicle>
    <vehicle id="2.73" type="car" depart="29466.94">
        <route edges="-97 -95 -99 -93"/>
    </vehicle>
    <vehicle id="1.138" type="car" depart="29469.85">
        <route edges="-90 -96 -102 -94"/>
    </vehicle>
    <vehicle id="1.139" type="car" depart="29474.58">
        <route edges="-90 -96 -103 -105 -106 -98"/>
    </vehicle>
    <vehicle id="1.140" type="car" depart="29477.04">
        <route edges="-90 -96 -103 -105 -106 -98"/>
    </vehicle>
    <vehicle id="1.141" type="car" depart="29489.95">
        <route edges="-90 -96 -101"/>
    </vehicle>
    <vehicle id="2.74" type="car" depart="29497.04">
        <route edges="-97 -96 -103 -105 -106 -98"/>
    </vehicle>
    <vehicle id="1.142" type="car" depart="29501.75">
        <route edges="-90 -96 -101"/>
    </vehicle>
    <vehicle id="2.75" type="car" depart="29501.80">
        <route edges="-97 -96 -102 -93"/>
    </vehicle>
    <vehicle id="2.76" type="car" depart="29509.30">
        <route edges="-97 -93"/>
    </vehicle>
    <vehicle id="1.143" type="car" depart="29510.29">
        <route edges="-90 -96 -103 -105 -106 -98"/>
    </vehicle>
    <vehicle id="1.144" type="car" depart="29514.68">
        <route edges="-90 -95 -98"/>
    </vehicle>
    <vehicle id="1.145" type="car" depart="29514.77">
        <route edges="-90 -96 -103 -105 -106 -99 -94"/>
    </vehicle>
    <vehicle id="1.146" type="car" depart="29524.61">
        <route edges="-90 -96 -102 -94"/>
    </vehicle>
    <vehicle id="2.77" type="car" depart="29527.52">
        <route edges="-97 -96 -101"/>
    </vehicle>
    <vehicle id="1.147" type="car" depart="29528.74">
        <route edges="-90 -96 -101"/>
    </vehicle>
    <vehicle id="2.78" type="car" depart="29537.48">
        <route edges="-97 -95 -100 -107 -104 -102 -94"/>
    </vehicle>
    <vehicle id="1.148" type="car" depart="29538.72">
        <route edges="-90 -96 -103 -105 -106 -99 -94"/>
    </vehicle>
    <vehicle id="1.149" type="car" depart="29539.00">
        <route edges="-90 -95 -100 -107 -104 -101"/>
    </vehicle>
    <vehicle id="2.79" type="car" depart="29542.92">
        <route edges="-97 -95 -99 -96 -101"/>
    </vehicle>
    <vehicle id="1.150" type="car" depart="29544.12">
        <route edges="-90 -94"/>
    </vehicle>
    <vehicle id="2.80" type="car" depart="29548.78">
        <route edges="-97 -93"/>
    </vehicle>
    <vehicle id="1.151" type="car" depart="29549.13">
        <route edges="-90 -96 -101"/>
    </vehicle>
    <vehicle id="1.152" type="car" depart="29550.04">
        <route edges="-90 -96 -101"/>
    </vehicle>
    <vehicle id="1.153" type="car" depart="29550.33">
        <route edges="-90 -96 -101"/>
    </vehicle>
    <vehicle id="2.81" type="car" depart="29551.70">
        <route edges="-97 -96 -102 -95 -99 -94"/>
    </vehicle>
    <vehicle id="1.154" type="car" depart="29554.61">
        <route edges="-90 -96 -102 -94"/>
    </vehicle>
    <vehicle id="1.155" type="car" depart="29557.26">
        <route edges="-90 -96 -101"/>
    </vehicle>
    <vehicle id="2.82" type="car" depart="29557.59">
        <route edges="-97 -95 -99 -96 -103 -105 -106 -98"/>
    </vehicle>
    <vehicle id="1.156" type="car" depart="29557.99">
        <route edges="-90 -94"/>
    </vehicle>
    <vehicle id="1.157" type="car" depart="29563.93">
        <route edges="-90 -96 -101"/>
    </vehicle>
    <vehicle id="1.158" type="car" depart="29565.49">
        <route edges="-90 -96 -103 -105 -106 -100 -107 -104 -102 -94"/>
    </vehicle>
    <vehicle id="2.83" type="car" depart="29567.17">
        <route edges="-97 -96 -101"/>
    </vehicle>
    <vehicle id="1.159" type="car" depart="29572.38">
        <route edges="-90 -96 -103 -105 -106 -99 -94"/>
    </vehicle>
    <vehicle id="1.160" type="car" depart="29572.69">
        <route edges="-90 -96 -101"/>
    </vehicle>
    <vehicle id="1.161" type="car" depart="29575.02">
        <route edges="-90 -96 -102 -94"/>
    </vehicle>
    <vehicle id="1.162" type="car" depart="29578.33">
        <route edges="-90 -94"/>
    </vehicle>
    <vehicle id="2.84" type="car" depart="29579.63">
        <route edges="-97 -96 -102 -95 -98"/>
    </vehicle>
    <vehicle id="2.85" type="car" depart="29582.86">
        <route edges="-97 -96 -101"/>
    </vehicle>
    <vehicle id="1.163" type="car" depart="29583.64">
        <route edges="-90 -96 -101"/>
    </vehicle>
    <vehicle id="1.164" type="car" depart="29583.69">
        <route edges="-90 -96 -102 -93"/>
    </vehicle>
    <vehicle id="1.165" type="car" depart="29589.91">
        <route edges="-90 -96 -101"/>
    </vehicle>
    <vehicle id="1.166" type="car" depart="29596.66">
        <route edges="-90 -96 -101"/>
    </vehicle>